<?xml version="1.0" encoding="UTF-8"?>

<configuration>
    <input>
       <net-file value="DiamondTLs.net.xml"/>
        <route-files value="DiamondTLs.rou.alt.xml"/>
    </input>
	<time>
        <begin value="0"/>
        <end value="6000"/>
    </time>
    <time-to-teleport value="-1"/> <!-- If the value is not positive, teleporting due to grid-lock is disabled.-->
</configuration>
